/*--------------------------------*- C++ -*----------------------------------*\
| =========                 |                                                 |
| \\      /  F ield         | OpenFOAM: The Open Source CFD Toolbox           |
|  \\    /   O peration     | Version:  4.1                                   |
|   \\  /    A nd           | Web:      www.OpenFOAM.org                      |
|    \\/     M anipulation  |                                                 |
\*---------------------------------------------------------------------------*/
FoamFile
{
    version     2.0;
    format      ascii;
    class       dictionary;
    location    "constant";
    object      MRFProperties;
}
// * * * * * * * * * * * * * * * * * * * * * * * * * * * * * * * * * * * * * //

MRF1
{
    cellZone    rotating;
    active      yes;

    // Fixed patches (by default they 'move' with the MRF zone)
    nonRotatingPatches ();

    origin    (2 3 3.5);
    axis      (0 0 1);
    omega      -4.712;  // ((45*2*pi)/60 rad/s = 4.712 rad/s
}

// ************************************************************************* //
